** sch_path: /home/faisalasadullah17/ringoscilator/ringosibasic.sch
.subckt ringosibasic vdd out gnd
*.PININFO vdd:B gnd:B out:O
*  x1 -  inverter  IS MISSING !!!!
*  x2 -  inverter  IS MISSING !!!!
*  x3 -  inverter  IS MISSING !!!!
.ends
.end
